
**** 09/23/15 14:49:09 ******* PSpice 10.5.0 (Jan 2005) ******* ID# 2089943105 
 ** Profile: "rc_init_orcad_sch1-rc_init_transitoire"  [ u:\mes documents\mini projet 2015\travail_orcad\rc_init_orcad-PSpiceFiles\rc


 ****     CIRCUIT DESCRIPTION


******************************************************************************




** Creating circuit file "rc_init_transitoire.cir" 
** WARNING: THIS AUTOMATICALLY GENERATED FILE MAY BE OVERWRITTEN BY SUBSEQUENT SIMULATIONS

*Libraries: 
* Profile Libraries :
* Local Libraries :
* From [PSPICE NETLIST] section of C:\OrCAD\OrCAD_10.5\tools\PSpice\PSpice.ini file:
.lib "nom.lib" 

*Analysis directives: 
.TRAN  0 3ms 0 
.PROBE V(alias(*)) I(alias(*)) W(alias(*)) D(alias(*)) NOISE(alias(*)) 
.INC "..\rc_init_orcad_sch1.net" 



**** INCLUDING rc_init_orcad_sch1.net ****
* source RC_INIT_ORCAD
R_R1         VE VS  10k  
C_C1         VS 0  10n  
V_V1         VE 0  
+PULSE 0 5 0 0 0 0.5m 1m

**** RESUMING rc_init_transitoire.cir ****
.END

**** 09/23/15 14:49:09 ******* PSpice 10.5.0 (Jan 2005) ******* ID# 2089943105 
 ** Profile: "rc_init_orcad_sch1-rc_init_transitoire"  [ u:\mes documents\mini projet 2015\travail_orcad\rc_init_orcad-PSpiceFiles\rc


 ****     INITIAL TRANSIENT SOLUTION       TEMPERATURE =   27.000 DEG C


******************************************************************************



 NODE   VOLTAGE     NODE   VOLTAGE     NODE   VOLTAGE     NODE   VOLTAGE


(   VE)    0.0000  (   VS)    0.0000  




    VOLTAGE SOURCE CURRENTS
    NAME         CURRENT

    V_V1         0.000E+00

    TOTAL POWER DISSIPATION   0.00E+00  WATTS



          JOB CONCLUDED

**** 09/23/15 14:49:09 ******* PSpice 10.5.0 (Jan 2005) ******* ID# 2089943105 
 ** Profile: "rc_init_orcad_sch1-rc_init_transitoire"  [ u:\mes documents\mini projet 2015\travail_orcad\rc_init_orcad-PSpiceFiles\rc


 ****     JOB STATISTICS SUMMARY


******************************************************************************



  Total job time (using Solver 1)   =         .05
